 &time_control
 run_days                            = 0,
 run_hours                           = 24,
 run_minutes                         = 0,
 run_seconds                         = 0,
 start_year                          = 2021,
 start_month                         = 07,
 start_day                           = 20,
 start_hour                          = 00,
 start_minute                        = 00,
 start_second                        = 00,
 end_year                            = 2021,
 end_month                           = 07,
 end_day                             = 21,
 end_hour                            = 01, ! add extra hour to force real.exe output at the previous hour
 end_minute                          = 00,
 end_second                          = 00,
 interval_seconds                    = 3600
 input_from_file                     = .true.,.true.,.false.,
 history_interval                    = 60,   30,   60,
 frames_per_outfile                  = 1, 1000, 1000,
 restart                             = .false.,
 restart_interval                    = 1440,
 io_form_history                     = 2
 io_form_restart                     = 2
 io_form_input                       = 2
 io_form_boundary                    = 2
 debug_level                         = 0
 auxinput4_inname                    = "wrflowinp_d<domain>"
 auxinput4_interval                  = 180, 180, 360,
 io_form_auxinput4                   = 2,
 iofields_filename                   = "myoutfields.txt", "myoutfields.txt",
 /

&domains
 time_step                           = 10,
 time_step_fract_num                 = 0,
 time_step_fract_den                 = 1,
 max_dom                             = 1,
 e_we                                = 321,
 e_sn                                = 501,
! estimated using get_inputs_for_real_exe.py
 e_vert                              = 201,     ! constant dz ~ 50 m
 p_top_requested                     = 26408.0, ! ztop = 10km
 eta_levels                          = 1.00000,  0.99201,  0.98406,  0.97615,  0.96828,
                                       0.96045,  0.95265,  0.94489,  0.93717,  0.92949,
                                       0.92185,  0.91424,  0.90667,  0.89914,  0.89164,
                                       0.88418,  0.87676,  0.86938,  0.86203,  0.85471,
                                       0.84744,  0.84020,  0.83300,  0.82583,  0.81870,
                                       0.81160,  0.80454,  0.79751,  0.79052,  0.78356,
                                       0.77664,  0.76975,  0.76290,  0.75608,  0.74929,
                                       0.74254,  0.73582,  0.72914,  0.72249,  0.71587,
                                       0.70929,  0.70273,  0.69622,  0.68973,  0.68328,
                                       0.67686,  0.67047,  0.66412,  0.65779,  0.65150,
                                       0.64524,  0.63902,  0.63282,  0.62666,  0.62052,
                                       0.61442,  0.60835,  0.60231,  0.59631,  0.59033,
                                       0.58438,  0.57847,  0.57258,  0.56672,  0.56090,
                                       0.55510,  0.54933,  0.54360,  0.53789,  0.53221,
                                       0.52656,  0.52094,  0.51536,  0.50980,  0.50426,
                                       0.49876,  0.49328,  0.48783,  0.48242,  0.47702,
                                       0.47166,  0.46633,  0.46102,  0.45574,  0.45049,
                                       0.44526,  0.44007,  0.43490,  0.42976,  0.42464,
                                       0.41955,  0.41449,  0.40945,  0.40445,  0.39947,
                                       0.39451,  0.38958,  0.38468,  0.37980,  0.37494,
                                       0.37012,  0.36532,  0.36054,  0.35580,  0.35107,
                                       0.34638,  0.34170,  0.33705,  0.33243,  0.32783,
                                       0.32326,  0.31871,  0.31418,  0.30968,  0.30520,
                                       0.30075,  0.29632,  0.29191,  0.28753,  0.28317,
                                       0.27884,  0.27453,  0.27025,  0.26599,  0.26175,
                                       0.25753,  0.25333,  0.24916,  0.24501,  0.24089,
                                       0.23678,  0.23270,  0.22865,  0.22461,  0.22059,
                                       0.21660,  0.21263,  0.20868,  0.20475,  0.20085,
                                       0.19696,  0.19310,  0.18926,  0.18544,  0.18164,
                                       0.17787,  0.17411,  0.17038,  0.16666,  0.16297,
                                       0.15930,  0.15564,  0.15201,  0.14840,  0.14481,
                                       0.14124,  0.13769,  0.13416,  0.13065,  0.12715,
                                       0.12368,  0.12023,  0.11680,  0.11338,  0.10999,
                                       0.10661,  0.10326,  0.09993,  0.09661,  0.09331,
                                       0.09003,  0.08677,  0.08353,  0.08031,  0.07710,
                                       0.07392,  0.07075,  0.06760,  0.06447,  0.06136,
                                       0.05826,  0.05518,  0.05212,  0.04908,  0.04606,
                                       0.04305,  0.04006,  0.03709,  0.03413,  0.03119,
                                       0.02827,  0.02537,  0.02248,  0.01961,  0.01676,
                                       0.01392,  0.01110,  0.00830,  0.00552,  0.00275,
                                       0.00000,
 num_metgrid_levels                  = 41,
 num_metgrid_soil_levels             = 9,
 dx                                  = 1000.,
 dy                                  = 1000.,
 grid_id                             = 1,     2,     3,
 parent_id                           = 0,     1,     2,
 i_parent_start                      = 1,     48,    62,
 j_parent_start                      = 1,     32,    47,
 parent_grid_ratio                   = 1,     3,     3,
 parent_time_step_ratio              = 1,     3,     3,
 feedback                            = 0,
 smooth_option                       = 0,
 corral_dist                         = 2,     2,     2,
 interp_type                         = 1,
 rebalance                           = 1,
 lagrange_order                      = 1,
 wif_input_opt                       = 1,
 num_wif_levels                      = 30,
 max_ts_locs                         = 80,
 tslist_unstagger_winds              = .true.,
!nproc_x                             = 24,
!nproc_y                             = 26, 
/

 &physics
 mp_physics                          = 28,     6,     6,
 mp_zero_out                         = 2,
 mp_zero_out_thresh                  = 1.e-12,
!use_aero_icbc                       = .true.,
 aer_opt                             = 3,
 cu_physics                          = 0,     0,     0,
 ra_lw_physics                       = 4,     4,     1,
 ra_sw_physics                       = 4,     4,     1,
 bl_pbl_physics                      = 1,     5,     1,
 bl_mynn_edmf                        = 0,     1,     0,
 bl_mynn_edmf_mom                    = 1,     1,     0,
 bl_mynn_edmf_tke                    = 0,     1,     0,
 bl_mynn_mixlength                   = 2,
 bl_mynn_cloudpdf                    = 2,
 icloud_bl                           = 1,
 scalar_pblmix                       = 1,     1,
 sf_sfclay_physics                   = 1,     5,     1,
 sf_surface_physics                  = 4,     2,     2,
 radt                                = 15,    5,    30,
 swint_opt                           = 1,
 bldt                                = 0,     0,     0,
 cudt                                = 5,     5,     5,
 icloud                              = 1,
 surface_input_source                = 1,
 num_soil_layers                     = 4,
 num_land_cat                        = 21,
 sf_urban_physics                    = 0,     0,     0,
 sst_update                          = 1,
 usemonalb                           = .true.,
 rdlai2d                             = .true.,
 fractional_seaice                   = 1,
 seaice_threshold                    = 271.4,
 prec_acc_dt                         = 60.,
 hailcast_opt                        = 1,
 haildt                              = 60,
 /

 &fdda
!grid_fdda                           = 1,       0,       0,       0,
!gfdda_inname                        = "wrffdda_d<domain>",
!gfdda_interval_m                    = 180,   180,     360,     360,
!gfdda_end_h                         = 990,
!io_form_gfdda                       = 2,
!if_no_pbl_nudging_uv                = 1,       1,       1,       1,
!if_no_pbl_nudging_t                 = 1,       1,       1,       1,
!if_no_pbl_nudging_q                 = 1,       1,       1,       1,
!if_no_pbl_nudging_ph                = 1,       1,       1,       1,
!if_zfac_uv                          = 1,
!k_zfac_uv                         = 18,
!if_zfac_t                          = 1,
!k_zfac_t                         = 18,
!if_zfac_q                          = 1,
!k_zfac_q                         = 18,
!if_zfac_ph                          = 1,
!k_zfac_ph                         = 18,
!guv                                 = 0.0003, 0.0003, 0,0003, 0,0003,
!gt                                  = 0.0003, 0.0003, 0,0003, 0,0003,
!gq                                  = 0.00003, 0.0003, 0,0003, 0,0003,
!gph                                 = 0.0003, 0.0003, 0,0003, 0,0003,
!if_ramping                          = 1,
!dtramp_min                          = 180,
 /

 &dynamics
 hybrid_opt                          = 2,
 etac                                = 0.2, 
 w_damping                           = 0,
 diff_opt                            = 1,      1,      1,
 km_opt                              = 4,      4,      4,
 diff_6th_opt                        = 2,      0,      0,
 diff_6th_factor                     = 0.12,   0.12,   0.12,
!diff_6th_slopeopt                   = 1,   0.12,   0.12,
!diff_6th_thresh                     = 0.05,   0.12,   0.12,
 moist_mix6_off                      = .false.,
 scalar_mix6_off                     = .false.,
 tke_mix6_off                        = .true.,
 base_temp                           = 290.
 damp_opt                            = 3,
 zdamp                               = 5000.,  5000.,  5000.,
 dampcoef                            = 0.2,    0.2,    0.2
 khdif                               = 0,      0,      0,
 kvdif                               = 0,      0,      0,
 non_hydrostatic                     = .true., .true., .true.,
 time_step_sound                     = 4,
 h_mom_adv_order                     = 5,
 v_mom_adv_order                     = 5,
 h_sca_adv_order                     = 5,
 v_sca_adv_order                     = 5,
 moist_adv_opt                       = 1,      1,      1,     
 scalar_adv_opt                      = 1,      1,      1,     
 gwd_opt                             = 1,
 /

 &bdy_control
 spec_bdy_width                      = 10,
 spec_zone                           = 1,
 relax_zone                          = 9,
 specified                           = .true., .false.,.false.,
 nested                              = .false., .true., .true.,
 /

 &grib2
 /

 &namelist_quilt
 nio_tasks_per_group = 0,
 nio_groups = 1,
 /
